/*--------------------------------*- C++ -*----------------------------------*\
| =========                 |                                                 |
| \\      /  F ield         | OpenFOAM: The Open Source CFD Toolbox           |
|  \\    /   O peration     | Version:  2.2.2                                 |
|   \\  /    A nd           | Web:      www.OpenFOAM.org                      |
|    \\/     M anipulation  |                                                 |
\*---------------------------------------------------------------------------*/
FoamFile
{
    version     2.0;
    format      binary;
    class       polyBoundaryMesh;
    location    "constant/polyMesh";
    object      boundary;
}
// * * * * * * * * * * * * * * * * * * * * * * * * * * * * * * * * * * * * * //

5
(
    frontAndBackPlanes
    {
        type            empty;
        inGroups        1(empty);
        nFaces          14652;
        startFace       14479;
    }
    inlet
    {
        type            patch;
        nFaces          74;
        startFace       29131;
    }
    lowerWall
    {
        type            wall;
        nFaces          99;
        startFace       29205;
    }
    outlet
    {
        type            patch;
        nFaces          74;
        startFace       29304;
    }
    upperWall
    {
        type            wall;
        nFaces          99;
        startFace       29378;
    }
)

// ************************************************************************* //
